LAMMPS (22 Jul 2025)
# ---------- System & Potential ----------
units           metal
atom_style      atomic
boundary        p p p
read_restart    restart.glass
Reading restart file ...
  restart file = 22 Jul 2025, LAMMPS = 22 Jul 2025
  restoring atom style atomic from restart
  orthogonal box = (-5.3745847 -5.3745847 -5.3745847) to (97.874585 97.874585 97.874585)
  pair style meam stores no restart info
  62500 atoms
  read_restart CPU = 0.124 seconds
reset_timestep  0

mass 1 91.224  # Zr
mass 2 63.546  # Cu
variable        elems string "Zr Cu"

pair_style       meam
pair_coeff       * * ../../../../library.meam Zr Cu ../../../../ZrCu.meam Zr Cu

velocity all set 0.0 0.0 0.0
run 0
For more information see https://docs.lammps.org/err0028 (../verlet.cpp:60)
Step          Temp          E_pair         E_mol          TotEng         Press
0   0             -312103.92      0             -312103.92     -2439.4717
Loop time of 6.68175e-06 on 36 procs for 0 steps with 62500 atoms

# ---------- Variables ----------
variable R      equal 40.0                      # Å
variable dmax   equal 22.000000                  # Å
variable vel    equal 0.500000                   # Å/ps
variable x0     equal (xhi-xlo)/2+xlo
variable y0     equal (yhi-ylo)/2+ylo

variable new_zhi equal zhi+v_R*2+10.0
change_box all z final -5.3745846689637630789 187.874584668942 units box
Changing box ...
  orthogonal box = (-5.3745847 -5.3745847 -5.3745847) to (97.874585 97.874585 187.87458)

variable z0     equal "zhi-(v_R+10.0)"
variable zmove  equal "v_z0 - v_vel*step*dt"
variable nstep  equal "round(v_dmax/v_vel/dt)"
variable zup    equal "v_z0 - v_vel*v_nstep*dt + v_vel*(step - v_nstep)*dt"

# ---------- Regions & Groups ----------
variable bot_low  equal zlo
variable bot_high equal zlo+10.0

region bottom block INF INF INF INF -5.37458466896376 4.62541533103624 units box
group  bottom_atoms region bottom
6064 atoms in group bottom_atoms
group  mobile subtract all bottom_atoms
56436 atoms in group mobile

# ---------- Time Integration & Thermostat ----------
fix nve_shell all nve
fix freeze bottom_atoms setforce 0.0 0.0 0.0
velocity bottom_atoms set 0.0 0.0 0.0
fix temp_scale mobile temp/rescale 100 0.1 0.1 0.01 1.0

# ---------- Computes (for output) ----------
compute pe_atom all pe/atom
compute ke_atom all ke/atom

compute Zmax mobile reduce max z

# ---------- Outputs (optional dumps) ----------
shell           "rm -rf CFG"
shell           mkdir CFG
dump            d1 all cfg 100 CFG/indent_*.cfg mass type xs ys zs
dump_modify     d1 element Zr Cu sort id pad 5

# pre snapshot
run 0
Step          Temp          E_pair         E_mol          TotEng         Press
0   0             -309083.98      0             -309083.98     -1929.9757
Loop time of 5.80608e-06 on 36 procs for 0 steps with 62500 atoms

write_dump all custom dump.pre id type x y z c_pe_atom c_ke_atom

# ---------- Loading Phase ----------
fix indent_load all indent 1000 sphere 46.2499999999891 46.2499999999891 v_zmove 40 units box

thermo 1000
thermo_style custom step time temp pe ke etotal press lx ly lz v_z0 v_zmove v_nstep

variable LoadL  equal f_indent_load[3]
variable DepthL  equal "v_z0 - v_zmove"
variable ZmaxM   equal "c_Zmax"
variable Lbox    equal "lz"
variable EindL   equal "f_indent_load"     # indent energy during loading

compute t_all all temp

fix log_load all ave/time 10 1 10 v_LoadL v_DepthL v_ZmaxM v_Lbox v_EindL c_t_all f_indent_load[1] f_indent_load[2] f_indent_load[3] file indentation_out.load mode scalar

run $(v_nstep)
run 44000
Step          Time           Temp          PotEng         KinEng         TotEng         Press            Lx             Ly             Lz            v_z0         v_zmove        v_nstep
0   0              0             -309083.98      0             -309083.98     -1929.9757      103.24917      103.24917      193.24917      137.87458      137.87458      44000
Averages over the last 23 of 45 rows, steps 22000 to 44000:
Temp PotEng KinEng TotEng Press Lx Ly Lz v_z0 v_zmove v_nstep
0.0902974 -309551 0.72948 -309550 15651.9 103.249 103.249 193.249 137.875 121.375 44000
Loop time of 2172.55 on 36 procs for 44000 steps with 62500 atoms

unfix indent_load
unfix log_load

# ---------- Unloading Phase ----------
fix indent_unload all indent 1000 sphere 46.2499999999891 46.2499999999891 v_zup 40 units box

thermo 1000
thermo_style custom step time temp pe ke etotal press lx ly lz v_zup

variable LoadU  equal f_indent_unload[3]
variable DepthU  equal "v_z0 - v_zup"
variable EindU   equal "f_indent_unload"

fix log_unload all ave/time 10 1 10 v_LoadU v_DepthU v_ZmaxM v_Lbox v_EindU c_t_all f_indent_unload[1] f_indent_unload[2] f_indent_unload[3] file indentation_out.unload mode scalar

run $(v_nstep)
run 44000
Step          Time           Temp          PotEng         KinEng         TotEng         Press            Lx             Ly             Lz           v_zup
44000   44             0.090297445   -308105.94      0.72947963    -308105.21      27209.191      103.24917      103.24917      193.24917      115.87458
Averages over the last 23 of 45 rows, steps 66000 to 88000:
Temp PotEng KinEng TotEng Press Lx Ly Lz v_zup
0.0915818 -310566 0.739856 -310566 2798.58 103.249 103.249 193.249 132.375
Loop time of 2151.08 on 36 procs for 44000 steps with 62500 atoms

unfix indent_unload
unfix log_unload

# ---------- Final Snapshots ----------
write_dump all custom dump.post id type x y z c_pe_atom c_ke_atom

write_dump all cfg final.cfg mass type xs ys zs modify element Zr Cu sort id pad 5
