LAMMPS (22 Jul 2025)
# ===== Auto-generated for 1.Cu50Zr50 =====
units            metal
boundary         p p p
atom_style       atomic
atom_modify      sort 0 0
neighbor         0.3 bin
timestep         0.001

lattice fcc 3.7
Lattice spacing in x,y,z = 3.7 3.7 3.7
region  mybox block 0 25 0 25 0 25
create_box 2 mybox
Created orthogonal box = (0 0 0) to (92.5 92.5 92.5)
create_atoms 1 box
Created 62500 atoms

# 조성: Zr50 Cu50
mass 1 91.224000  # Zr
mass 2 63.546000  # Cu

# MEAM
pair_style meam
pair_coeff * * ../library.meam Zr Cu ../ZrCu.meam Zr Cu

# 타입 분할 (총 62500개 기준)
set type 1 type/subset 2 31250 88099
Setting atom values ...
  31250 settings made for type/subset

# 초기 속도/모멘텀
velocity all create 300 4928459 mom yes rot yes dist gaussian

# 공통 변수/thermo
variable Tdamp    equal 0.1
variable Pdamp    equal 1.0
variable Ptarget  equal 0.0
thermo 1000
thermo_style custom step temp press etotal density pe enthalpy vol

# 샘플 변수 (1 ps 간격)
variable vT   equal temp
variable rho  equal density
variable ent  equal enthalpy/atoms

# 1) 가열 300 -> 2500 K @ 10^13 K/s (220 ps = 220000 steps)
fix OUT1 all ave/time 1000 1 1000 v_vT v_rho v_ent file tg_heating.dat
fix NPT all npt temp 300 2500 0.1 iso 0 0 1
run 220000
Step          Temp          Press          TotEng        Density         PotEng        Enthalpy        Volume
0   300            722160.12     -240429.19      10.147275     -242852.78      116307.96      791453.12
Averages over the last 111 of 221 rows, steps 110000 to 220000:
Temp Press TotEng Density PotEng Enthalpy Volume
1948.5 17.5603 -275981 6.76225 -291722 -275968 1.1881e+06
Loop time of 4194.38 on 36 procs for 220000 steps with 62500 atoms

unfix NPT
unfix OUT1

# 2) 냉각 2500 -> 300 K @ 10^12 K/s, 10 K 세그먼트당 10 ps, 재평형 0.0 ps
fix OUT2 all ave/time 1000 1 1000 v_vT v_rho v_ent file tg_cooling.dat

variable dTseg      equal 10
variable seg_steps  equal 10000
variable eq_steps   equal 0
variable nseg       equal floor((2500-300)/10)

variable i loop 220
label loop_cool
  variable Tstart equal 2500 - (1-1)*10
  variable Tstop  equal 2500 - (1)*10

  fix NPT all npt temp 2500 2490 0.1 iso 0 0 1
  run 10000
Step          Temp          Press          TotEng        Density         PotEng        Enthalpy        Volume
220000   2512.7488      538.20983     -263341.25      6.5383349     -283640.82     -262928.63      1228308.6
Averages over the last 6 of 11 rows, steps 225000 to 230000:
Temp Press TotEng Density PotEng Enthalpy Volume
2499.21 89.2956 -263560 6.53886 -283750 -263492 1.22821e+06
Loop time of 187.608 on 36 procs for 10000 steps with 62500 atoms

  unfix NPT

  next i
jump lammps_script loop_cool
  variable Tstart equal 2500 - (2-1)*10
  variable Tstop  equal 2500 - (2)*10

  fix NPT all npt temp 2490 2480 0.1 iso 0 0 1
  run 10000
Step          Temp          Press          TotEng        Density         PotEng        Enthalpy        Volume
230000   2501.3807     -374.1577      -263648.79      6.5387452     -283856.52     -263935.62      1228231.5
Averages over the last 6 of 11 rows, steps 235000 to 240000:
Temp Press TotEng Density PotEng Enthalpy Volume
2485.06 216.279 -263780 6.5429 -283856 -263615 1.22745e+06
Loop time of 187.881 on 36 procs for 10000 steps with 62500 atoms

  unfix NPT

  next i
jump lammps_script loop_cool
  variable Tstart equal 2500 - (3-1)*10
  variable Tstop  equal 2500 - (3)*10

  fix NPT all npt temp 2480 2470 0.1 iso 0 0 1
  run 10000
Step          Temp          Press          TotEng        Density         PotEng        Enthalpy        Volume
240000   2482.6602      630.30431     -263982.03      6.5503313     -284038.52     -263499.69      1226059
Averages over the last 6 of 11 rows, steps 245000 to 250000:
Temp Press TotEng Density PotEng Enthalpy Volume
2473.76 319.299 -264064 6.54901 -284049 -263820 1.22631e+06
Loop time of 188.205 on 36 procs for 10000 steps with 62500 atoms

  unfix NPT

  next i
jump lammps_script loop_cool
  variable Tstart equal 2500 - (4-1)*10
  variable Tstop  equal 2500 - (4)*10

  fix NPT all npt temp 2470 2460 0.1 iso 0 0 1
  run 10000
Step          Temp          Press          TotEng        Density         PotEng        Enthalpy        Volume
250000   2474.2508      164.69065     -264088.15      6.5503688     -284076.7      -263962.12      1226052
Averages over the last 6 of 11 rows, steps 255000 to 260000:
Temp Press TotEng Density PotEng Enthalpy Volume
2465.27 37.7709 -264158 6.54889 -284074 -264129 1.22633e+06
Loop time of 188.095 on 36 procs for 10000 steps with 62500 atoms

  unfix NPT

  next i
jump lammps_script loop_cool
  variable Tstart equal 2500 - (5-1)*10
  variable Tstop  equal 2500 - (5)*10

  fix NPT all npt temp 2460 2450 0.1 iso 0 0 1
  run 10000
Step          Temp          Press          TotEng        Density         PotEng        Enthalpy        Volume
260000   2463.242      -232.88626     -264106.82      6.5448039     -284006.44     -264285.19      1227094.5
Averages over the last 6 of 11 rows, steps 265000 to 270000:
Temp Press TotEng Density PotEng Enthalpy Volume
2450.5 -191.438 -264504 6.55454 -284301 -264650 1.22527e+06
Loop time of 188.132 on 36 procs for 10000 steps with 62500 atoms

  unfix NPT

  next i
jump lammps_script loop_cool
  variable Tstart equal 2500 - (6-1)*10
  variable Tstop  equal 2500 - (6)*10

  fix NPT all npt temp 2450 2440 0.1 iso 0 0 1
  run 10000
Step          Temp          Press          TotEng        Density         PotEng        Enthalpy        Volume
270000   2438.0067     -170.37968     -264652.7       6.5576451     -284348.45     -264782.94      1224691.6
Averages over the last 6 of 11 rows, steps 275000 to 280000:
Temp Press TotEng Density PotEng Enthalpy Volume
2440.97 -78.0429 -264674 6.55769 -284393 -264733 1.22468e+06
Loop time of 188.17 on 36 procs for 10000 steps with 62500 atoms

  unfix NPT

  next i
jump lammps_script loop_cool
  variable Tstart equal 2500 - (7-1)*10
  variable Tstop  equal 2500 - (7)*10

  fix NPT all npt temp 2440 2430 0.1 iso 0 0 1
  run 10000
Step          Temp          Press          TotEng        Density         PotEng        Enthalpy        Volume
280000   2440.3072     -373.64103     -264590.21      6.5542621     -284304.55     -264875.96      1225323.7
Averages over the last 6 of 11 rows, steps 285000 to 290000:
Temp Press TotEng Density PotEng Enthalpy Volume
2431.35 9.02521 -264864 6.56124 -284506 -264857 1.22402e+06
Loop time of 188.023 on 36 procs for 10000 steps with 62500 atoms

  unfix NPT

  next i
jump lammps_script loop_cool
  variable Tstart equal 2500 - (8-1)*10
  variable Tstop  equal 2500 - (8)*10

  fix NPT all npt temp 2430 2420 0.1 iso 0 0 1
  run 10000
Step          Temp          Press          TotEng        Density         PotEng        Enthalpy        Volume
290000   2425.3203      23.35073      -264962.91      6.5631167     -284556.17     -264945.08      1223670.6
Averages over the last 6 of 11 rows, steps 295000 to 300000:
Temp Press TotEng Density PotEng Enthalpy Volume
2426.75 403.717 -265016 6.56721 -284620 -264707 1.22291e+06
Loop time of 188.451 on 36 procs for 10000 steps with 62500 atoms

  unfix NPT

  next i
jump lammps_script loop_cool
  variable Tstart equal 2500 - (9-1)*10
  variable Tstop  equal 2500 - (9)*10

  fix NPT all npt temp 2420 2410 0.1 iso 0 0 1
  run 10000
Step          Temp          Press          TotEng        Density         PotEng        Enthalpy        Volume
300000   2416.5957      546.09254     -265174.05      6.5694577     -284696.83     -264757.37      1222489.4
Averages over the last 6 of 11 rows, steps 305000 to 310000:
Temp Press TotEng Density PotEng Enthalpy Volume
2407.77 -201.2 -265349 6.56854 -284800 -265502 1.22266e+06
Loop time of 188.325 on 36 procs for 10000 steps with 62500 atoms

  unfix NPT

  next i
jump lammps_script loop_cool
  variable Tstart equal 2500 - (10-1)*10
  variable Tstop  equal 2500 - (10)*10

  fix NPT all npt temp 2410 2400 0.1 iso 0 0 1
  run 10000
Step          Temp          Press          TotEng        Density         PotEng        Enthalpy        Volume
310000   2415.7922     -149.73673     -265249.36      6.5669516     -284765.65     -265363.65      1222956
Averages over the last 6 of 11 rows, steps 315000 to 320000:
Temp Press TotEng Density PotEng Enthalpy Volume
2408.69 128.18 -265509 6.575 -284968 -265412 1.22146e+06
Loop time of 188.493 on 36 procs for 10000 steps with 62500 atoms

  unfix NPT

  next i
jump lammps_script loop_cool
  variable Tstart equal 2500 - (11-1)*10
  variable Tstop  equal 2500 - (11)*10

  fix NPT all npt temp 2400 2390 0.1 iso 0 0 1
  run 10000
Step          Temp          Press          TotEng        Density         PotEng        Enthalpy        Volume
320000   2410.7566     -406.43412     -265586.83      6.5741734     -285062.44     -265896.72      1221612.5
Averages over the last 6 of 11 rows, steps 325000 to 330000:
Temp Press TotEng Density PotEng Enthalpy Volume
2395.24 -212.401 -265735 6.57562 -285085 -265897 1.22134e+06
Loop time of 188.603 on 36 procs for 10000 steps with 62500 atoms

  unfix NPT

  next i
jump lammps_script loop_cool
  variable Tstart equal 2500 - (12-1)*10
  variable Tstop  equal 2500 - (12)*10

  fix NPT all npt temp 2390 2380 0.1 iso 0 0 1
  run 10000
Step          Temp          Press          TotEng        Density         PotEng        Enthalpy        Volume
330000   2386.08        140.08825     -265879.4       6.5782927     -285155.66     -265772.65      1220847.6
Averages over the last 6 of 11 rows, steps 335000 to 340000:
Temp Press TotEng Density PotEng Enthalpy Volume
2383.77 -153.928 -265967 6.58071 -285225 -266085 1.2204e+06
Loop time of 188.498 on 36 procs for 10000 steps with 62500 atoms

  unfix NPT

  next i
jump lammps_script loop_cool
  variable Tstart equal 2500 - (13-1)*10
  variable Tstop  equal 2500 - (13)*10

  fix NPT all npt temp 2380 2370 0.1 iso 0 0 1
  run 10000
Step          Temp          Press          TotEng        Density         PotEng        Enthalpy        Volume
340000   2378.3133      327.15946     -265939.41      6.5823093     -285152.92     -265690.27      1220102.6
Averages over the last 6 of 11 rows, steps 345000 to 350000:
Temp Press TotEng Density PotEng Enthalpy Volume
2370.82 -81.8844 -266216 6.58561 -285369 -266278 1.21949e+06
Loop time of 190.038 on 36 procs for 10000 steps with 62500 atoms

  unfix NPT

  next i
jump lammps_script loop_cool
  variable Tstart equal 2500 - (14-1)*10
  variable Tstop  equal 2500 - (14)*10

  fix NPT all npt temp 2370 2360 0.1 iso 0 0 1
  run 10000
Step          Temp          Press          TotEng        Density         PotEng        Enthalpy        Volume
350000   2366.7384     -739.8723      -266123.89      6.5788        -285243.89     -266687.62      1220753.4
Averages over the last 6 of 11 rows, steps 355000 to 360000:
Temp Press TotEng Density PotEng Enthalpy Volume
2367.6 77.0173 -266482 6.59334 -285609 -266424 1.21806e+06
Loop time of 188.891 on 36 procs for 10000 steps with 62500 atoms

  unfix NPT

  next i
jump lammps_script loop_cool
  variable Tstart equal 2500 - (15-1)*10
  variable Tstop  equal 2500 - (15)*10

  fix NPT all npt temp 2360 2350 0.1 iso 0 0 1
  run 10000
Step          Temp          Press          TotEng        Density         PotEng        Enthalpy        Volume
360000   2373.3985     -362.05519     -266506.46      6.5917506     -285680.27     -266781.78      1218355.1
Averages over the last 6 of 11 rows, steps 365000 to 370000:
Temp Press TotEng Density PotEng Enthalpy Volume
2354.3 -206.881 -266658 6.59331 -285678 -266816 1.21807e+06
Loop time of 189.088 on 36 procs for 10000 steps with 62500 atoms

  unfix NPT

  next i
jump lammps_script loop_cool
  variable Tstart equal 2500 - (16-1)*10
  variable Tstop  equal 2500 - (16)*10

  fix NPT all npt temp 2350 2340 0.1 iso 0 0 1
  run 10000
Step          Temp          Press          TotEng        Density         PotEng        Enthalpy        Volume
370000   2347.4572     -7.4929707     -266711.3       6.5942121     -285675.54     -266716.99      1217900.3
Averages over the last 6 of 11 rows, steps 375000 to 380000:
Temp Press TotEng Density PotEng Enthalpy Volume
2342.34 -413.516 -266799 6.59416 -285722 -267114 1.21791e+06
Loop time of 189.384 on 36 procs for 10000 steps with 62500 atoms

  unfix NPT

  next i
jump lammps_script loop_cool
  variable Tstart equal 2500 - (17-1)*10
  variable Tstop  equal 2500 - (17)*10

  fix NPT all npt temp 2340 2330 0.1 iso 0 0 1
  run 10000
Step          Temp          Press          TotEng        Density         PotEng        Enthalpy        Volume
380000   2331.1562     -1211.3849     -266901.14      6.5885788     -285733.68     -267822.76      1218941.6
Averages over the last 6 of 11 rows, steps 385000 to 390000:
Temp Press TotEng Density PotEng Enthalpy Volume
2333.75 -46.6474 -267018 6.60045 -285872 -267054 1.21675e+06
Loop time of 189.502 on 36 procs for 10000 steps with 62500 atoms

  unfix NPT

  next i
jump lammps_script loop_cool
  variable Tstart equal 2500 - (18-1)*10
  variable Tstop  equal 2500 - (18)*10

  fix NPT all npt temp 2330 2320 0.1 iso 0 0 1
  run 10000
Step          Temp          Press          TotEng        Density         PotEng        Enthalpy        Volume
390000   2341.1878     -3.7017091     -266994.3       6.6001137     -285907.89     -266997.11      1216811.3
Averages over the last 6 of 11 rows, steps 395000 to 400000:
Temp Press TotEng Density PotEng Enthalpy Volume
2324.15 -491.749 -267334 6.60262 -286110 -267707 1.21635e+06
Loop time of 189.409 on 36 procs for 10000 steps with 62500 atoms

  unfix NPT

  next i
jump lammps_script loop_cool
  variable Tstart equal 2500 - (19-1)*10
  variable Tstop  equal 2500 - (19)*10

  fix NPT all npt temp 2320 2310 0.1 iso 0 0 1
  run 10000
Step          Temp          Press          TotEng        Density         PotEng        Enthalpy        Volume
400000   2322.6375     -52.474763     -267426.98      6.6075551     -286190.71     -267466.79      1215440.9
Averages over the last 6 of 11 rows, steps 405000 to 410000:
Temp Press TotEng Density PotEng Enthalpy Volume
2310.43 -256.11 -267613 6.61105 -286278 -267807 1.2148e+06
Loop time of 189.645 on 36 procs for 10000 steps with 62500 atoms

  unfix NPT

  next i
jump lammps_script loop_cool
  variable Tstart equal 2500 - (20-1)*10
  variable Tstop  equal 2500 - (20)*10

  fix NPT all npt temp 2310 2300 0.1 iso 0 0 1
  run 10000
Step          Temp          Press          TotEng        Density         PotEng        Enthalpy        Volume
410000   2314.0538      269.13953     -267632.53      6.6162863     -286326.91     -267428.62      1213836.9
Averages over the last 6 of 11 rows, steps 415000 to 420000:
Temp Press TotEng Density PotEng Enthalpy Volume
2299.94 -361.177 -267804 6.61266 -286385 -268078 1.2145e+06
Loop time of 189.875 on 36 procs for 10000 steps with 62500 atoms

  unfix NPT

  next i
jump lammps_script loop_cool
  variable Tstart equal 2500 - (21-1)*10
  variable Tstop  equal 2500 - (21)*10

  fix NPT all npt temp 2300 2290 0.1 iso 0 0 1
  run 10000
Step          Temp          Press          TotEng        Density         PotEng        Enthalpy        Volume
420000   2304.3691     -317.20551     -267872.72      6.6164264     -286488.86     -268113.03      1213811.2
Averages over the last 6 of 11 rows, steps 425000 to 430000:
Temp Press TotEng Density PotEng Enthalpy Volume
2293.93 351.515 -267937 6.62043 -286469 -267671 1.21308e+06
Loop time of 189.864 on 36 procs for 10000 steps with 62500 atoms

  unfix NPT

  next i
jump lammps_script loop_cool
  variable Tstart equal 2500 - (22-1)*10
  variable Tstop  equal 2500 - (22)*10

  fix NPT all npt temp 2290 2280 0.1 iso 0 0 1
  run 10000
Step          Temp          Press          TotEng        Density         PotEng        Enthalpy        Volume
430000   2292.1468      393.85837     -267853.85      6.6174853     -286371.26     -267555.51      1213617
Averages over the last 6 of 11 rows, steps 435000 to 440000:
Temp Press TotEng Density PotEng Enthalpy Volume
2284.53 -216.318 -268194 6.6217 -286650 -268358 1.21284e+06
Loop time of 189.517 on 36 procs for 10000 steps with 62500 atoms

  unfix NPT

  next i
jump lammps_script loop_cool
  variable Tstart equal 2500 - (23-1)*10
  variable Tstop  equal 2500 - (23)*10

  fix NPT all npt temp 2280 2270 0.1 iso 0 0 1
  run 10000
Step          Temp          Press          TotEng        Density         PotEng        Enthalpy        Volume
440000   2277.9275      332.94347     -268302.91      6.6283444     -286705.45     -268051.13      1211628.8
Averages over the last 6 of 11 rows, steps 445000 to 450000:
Temp Press TotEng Density PotEng Enthalpy Volume
2273.17 -133.533 -268386 6.62513 -286750 -268487 1.21222e+06
Loop time of 189.412 on 36 procs for 10000 steps with 62500 atoms

  unfix NPT

  next i
jump lammps_script loop_cool
  variable Tstart equal 2500 - (24-1)*10
  variable Tstop  equal 2500 - (24)*10

  fix NPT all npt temp 2270 2260 0.1 iso 0 0 1
  run 10000
Step          Temp          Press          TotEng        Density         PotEng        Enthalpy        Volume
450000   2270.664      -18.999865     -268569.66      6.6302042     -286913.52     -268584.03      1211288.9
Averages over the last 6 of 11 rows, steps 455000 to 460000:
Temp Press TotEng Density PotEng Enthalpy Volume
2264.73 451.568 -268619 6.63369 -286915 -268278 1.21065e+06
Loop time of 189.469 on 36 procs for 10000 steps with 62500 atoms

  unfix NPT

  next i
jump lammps_script loop_cool
  variable Tstart equal 2500 - (25-1)*10
  variable Tstop  equal 2500 - (25)*10

  fix NPT all npt temp 2260 2250 0.1 iso 0 0 1
  run 10000
Step          Temp          Press          TotEng        Density         PotEng        Enthalpy        Volume
460000   2261.9778     -118.79709     -268574.73      6.6268343     -286848.42     -268664.59      1211904.9
Averages over the last 6 of 11 rows, steps 465000 to 470000:
Temp Press TotEng Density PotEng Enthalpy Volume
2251.07 106.581 -268894 6.63722 -287079 -268813 1.21001e+06
Loop time of 189.369 on 36 procs for 10000 steps with 62500 atoms

  unfix NPT

  next i
jump lammps_script loop_cool
  variable Tstart equal 2500 - (26-1)*10
  variable Tstop  equal 2500 - (26)*10

  fix NPT all npt temp 2250 2240 0.1 iso 0 0 1
  run 10000
Step          Temp          Press          TotEng        Density         PotEng        Enthalpy        Volume
470000   2258.0569      247.74201     -268900.88      6.6421464     -287142.89     -268713.92      1209111.1
Averages over the last 6 of 11 rows, steps 475000 to 480000:
Temp Press TotEng Density PotEng Enthalpy Volume
2240.13 50.1049 -269131 6.64001 -287228 -269093 1.2095e+06
Loop time of 189.678 on 36 procs for 10000 steps with 62500 atoms

  unfix NPT

  next i
jump lammps_script loop_cool
  variable Tstart equal 2500 - (27-1)*10
  variable Tstop  equal 2500 - (27)*10

  fix NPT all npt temp 2240 2230 0.1 iso 0 0 1
  run 10000
Step          Temp          Press          TotEng        Density         PotEng        Enthalpy        Volume
480000   2237.9135     -655.4734      -269085.26      6.6316191     -287164.54     -269580.71      1211030.5
Averages over the last 6 of 11 rows, steps 485000 to 490000:
Temp Press TotEng Density PotEng Enthalpy Volume
2232.76 159.047 -269273 6.6432 -287311 -269153 1.20892e+06
Loop time of 190.168 on 36 procs for 10000 steps with 62500 atoms

  unfix NPT

  next i
jump lammps_script loop_cool
  variable Tstart equal 2500 - (28-1)*10
  variable Tstop  equal 2500 - (28)*10

  fix NPT all npt temp 2230 2220 0.1 iso 0 0 1
  run 10000
Step          Temp          Press          TotEng        Density         PotEng        Enthalpy        Volume
490000   2237.2277     -278.83729     -269169.99      6.6391604     -287243.72     -269380.51      1209654.9
Averages over the last 6 of 11 rows, steps 495000 to 500000:
Temp Press TotEng Density PotEng Enthalpy Volume
2225.33 -164.036 -269492 6.64537 -287470 -269616 1.20853e+06
Loop time of 190.178 on 36 procs for 10000 steps with 62500 atoms

  unfix NPT

  next i
jump lammps_script loop_cool
  variable Tstart equal 2500 - (29-1)*10
  variable Tstop  equal 2500 - (29)*10

  fix NPT all npt temp 2220 2210 0.1 iso 0 0 1
  run 10000
Step          Temp          Press          TotEng        Density         PotEng        Enthalpy        Volume
500000   2220.5336      117.00312     -269502.46      6.6469657     -287441.32     -269414.22      1208234.4
Averages over the last 6 of 11 rows, steps 505000 to 510000:
Temp Press TotEng Density PotEng Enthalpy Volume
2216.05 -312.469 -269787 6.65026 -287689 -270022 1.20764e+06
Loop time of 190.388 on 36 procs for 10000 steps with 62500 atoms

  unfix NPT

  next i
jump lammps_script loop_cool
  variable Tstart equal 2500 - (30-1)*10
  variable Tstop  equal 2500 - (30)*10

  fix NPT all npt temp 2210 2200 0.1 iso 0 0 1
  run 10000
Step          Temp          Press          TotEng        Density         PotEng        Enthalpy        Volume
510000   2214.1067      94.287019     -269814.45      6.6544798     -287701.4      -269743.43      1206870.1
Averages over the last 6 of 11 rows, steps 515000 to 520000:
Temp Press TotEng Density PotEng Enthalpy Volume
2200.94 -91.5886 -270040 6.65562 -287820 -270109 1.20666e+06
Loop time of 190.153 on 36 procs for 10000 steps with 62500 atoms

  unfix NPT

  next i
jump lammps_script loop_cool
  variable Tstart equal 2500 - (31-1)*10
  variable Tstop  equal 2500 - (31)*10

  fix NPT all npt temp 2200 2190 0.1 iso 0 0 1
  run 10000
Step          Temp          Press          TotEng        Density         PotEng        Enthalpy        Volume
520000   2201.8076     -683.36823     -270077.28      6.65286       -287864.87     -270592.17      1207163.9
Averages over the last 6 of 11 rows, steps 525000 to 530000:
Temp Press TotEng Density PotEng Enthalpy Volume
2189.12 488.583 -270296 6.66455 -287981 -269928 1.20505e+06
Loop time of 189.763 on 36 procs for 10000 steps with 62500 atoms

  unfix NPT

  next i
jump lammps_script loop_cool
  variable Tstart equal 2500 - (32-1)*10
  variable Tstop  equal 2500 - (32)*10

  fix NPT all npt temp 2190 2180 0.1 iso 0 0 1
  run 10000
Step          Temp          Press          TotEng        Density         PotEng        Enthalpy        Volume
530000   2182.1027      444.28526     -270423.75      6.6678539     -288052.15     -270089.75      1204449.4
Averages over the last 6 of 11 rows, steps 535000 to 540000:
Temp Press TotEng Density PotEng Enthalpy Volume
2183.4 164.792 -270447 6.66585 -288086 -270323 1.20481e+06
Loop time of 189.964 on 36 procs for 10000 steps with 62500 atoms

  unfix NPT

  next i
jump lammps_script loop_cool
  variable Tstart equal 2500 - (33-1)*10
  variable Tstop  equal 2500 - (33)*10

  fix NPT all npt temp 2180 2170 0.1 iso 0 0 1
  run 10000
Step          Temp          Press          TotEng        Density         PotEng        Enthalpy        Volume
540000   2186.0368     -569.67134     -270416.17      6.6590278     -288076.35     -270844.99      1206045.8
Averages over the last 6 of 11 rows, steps 545000 to 550000:
Temp Press TotEng Density PotEng Enthalpy Volume
2172.48 -33.725 -270687 6.66832 -288238 -270713 1.20437e+06
Loop time of 190.228 on 36 procs for 10000 steps with 62500 atoms

  unfix NPT

  next i
jump lammps_script loop_cool
  variable Tstart equal 2500 - (34-1)*10
  variable Tstop  equal 2500 - (34)*10

  fix NPT all npt temp 2170 2160 0.1 iso 0 0 1
  run 10000
Step          Temp          Press          TotEng        Density         PotEng        Enthalpy        Volume
550000   2168.9445      571.56171     -270722.57      6.6724373     -288244.67     -270293.19      1203622.1
Averages over the last 6 of 11 rows, steps 555000 to 560000:
Temp Press TotEng Density PotEng Enthalpy Volume
2160.12 -152.783 -270971 6.67236 -288422 -271086 1.20364e+06
Loop time of 190.42 on 36 procs for 10000 steps with 62500 atoms

  unfix NPT

  next i
jump lammps_script loop_cool
  variable Tstart equal 2500 - (35-1)*10
  variable Tstop  equal 2500 - (35)*10

  fix NPT all npt temp 2160 2150 0.1 iso 0 0 1
  run 10000
Step          Temp          Press          TotEng        Density         PotEng        Enthalpy        Volume
560000   2165.5219      139.59194     -270912.07      6.6747872     -288406.52     -270807.24      1203198.3
Averages over the last 6 of 11 rows, steps 565000 to 570000:
Temp Press TotEng Density PotEng Enthalpy Volume
2155.48 -133.551 -271104 6.67513 -288517 -271204 1.20314e+06
Loop time of 190.3 on 36 procs for 10000 steps with 62500 atoms

  unfix NPT

  next i
jump lammps_script loop_cool
  variable Tstart equal 2500 - (36-1)*10
  variable Tstop  equal 2500 - (36)*10

  fix NPT all npt temp 2150 2140 0.1 iso 0 0 1
  run 10000
Step          Temp          Press          TotEng        Density         PotEng        Enthalpy        Volume
570000   2138.8663     -344.30261     -271192.57      6.6731992     -288471.68     -271451.19      1203484.6
Averages over the last 6 of 11 rows, steps 575000 to 580000:
Temp Press TotEng Density PotEng Enthalpy Volume
2142.98 99.7226 -271371 6.68153 -288683 -271296 1.20198e+06
Loop time of 190.446 on 36 procs for 10000 steps with 62500 atoms

  unfix NPT

  next i
jump lammps_script loop_cool
  variable Tstart equal 2500 - (37-1)*10
  variable Tstop  equal 2500 - (37)*10

  fix NPT all npt temp 2140 2130 0.1 iso 0 0 1
  run 10000
Step          Temp          Press          TotEng        Density         PotEng        Enthalpy        Volume
580000   2148.9829     -262.78826     -271419.6       6.6805222     -288780.44     -271616.78      1202165.4
Averages over the last 6 of 11 rows, steps 585000 to 590000:
Temp Press TotEng Density PotEng Enthalpy Volume
2133.18 -92.5427 -271592 6.68375 -288825 -271661 1.20158e+06
Loop time of 190.533 on 36 procs for 10000 steps with 62500 atoms

  unfix NPT

  next i
jump lammps_script loop_cool
  variable Tstart equal 2500 - (38-1)*10
  variable Tstop  equal 2500 - (38)*10

  fix NPT all npt temp 2130 2120 0.1 iso 0 0 1
  run 10000
Step          Temp          Press          TotEng        Density         PotEng        Enthalpy        Volume
590000   2133.3056      239.20239     -271685.18      6.6878781     -288919.36     -271505.89      1200843.2
Averages over the last 6 of 11 rows, steps 595000 to 600000:
Temp Press TotEng Density PotEng Enthalpy Volume
2126.2 -304.141 -271758 6.68628 -288935 -271986 1.20113e+06
Loop time of 190.486 on 36 procs for 10000 steps with 62500 atoms

  unfix NPT

  next i
jump lammps_script loop_cool
  variable Tstart equal 2500 - (39-1)*10
  variable Tstop  equal 2500 - (39)*10

  fix NPT all npt temp 2120 2110 0.1 iso 0 0 1
  run 10000
Step          Temp          Press          TotEng        Density         PotEng        Enthalpy        Volume
600000   2119.0177     -829.13249     -271911.81      6.6867521     -289030.57     -272533.35      1201045.4
Averages over the last 6 of 11 rows, steps 605000 to 610000:
Temp Press TotEng Density PotEng Enthalpy Volume
2115.14 -63.1239 -272012 6.6928 -289100 -272060 1.19996e+06
Loop time of 190.635 on 36 procs for 10000 steps with 62500 atoms

  unfix NPT

  next i
jump lammps_script loop_cool
  variable Tstart equal 2500 - (40-1)*10
  variable Tstop  equal 2500 - (40)*10

  fix NPT all npt temp 2110 2100 0.1 iso 0 0 1
  run 10000
Loop time of 190.706 on 36 procs for 10000 steps with 62500 atoms

  unfix NPT

  next i
jump lammps_script loop_cool
  variable Tstart equal 2500 - (41-1)*10
  variable Tstop  equal 2500 - (41)*10

  fix NPT all npt temp 2100 2090 0.1 iso 0 0 1
  run 10000
Loop time of 190.925 on 36 procs for 10000 steps with 62500 atoms

  unfix NPT

  next i
jump lammps_script loop_cool
  variable Tstart equal 2500 - (42-1)*10
  variable Tstop  equal 2500 - (42)*10

  fix NPT all npt temp 2090 2080 0.1 iso 0 0 1
  run 10000
Loop time of 190.867 on 36 procs for 10000 steps with 62500 atoms

  unfix NPT

  next i
jump lammps_script loop_cool
  variable Tstart equal 2500 - (43-1)*10
  variable Tstop  equal 2500 - (43)*10

  fix NPT all npt temp 2080 2070 0.1 iso 0 0 1
  run 10000
Loop time of 190.91 on 36 procs for 10000 steps with 62500 atoms

  unfix NPT

  next i
jump lammps_script loop_cool
  variable Tstart equal 2500 - (44-1)*10
  variable Tstop  equal 2500 - (44)*10

  fix NPT all npt temp 2070 2060 0.1 iso 0 0 1
  run 10000
Loop time of 191.026 on 36 procs for 10000 steps with 62500 atoms

  unfix NPT

  next i
jump lammps_script loop_cool
  variable Tstart equal 2500 - (45-1)*10
  variable Tstop  equal 2500 - (45)*10

  fix NPT all npt temp 2060 2050 0.1 iso 0 0 1
  run 10000
Loop time of 190.981 on 36 procs for 10000 steps with 62500 atoms

  unfix NPT

  next i
jump lammps_script loop_cool
  variable Tstart equal 2500 - (46-1)*10
  variable Tstop  equal 2500 - (46)*10

  fix NPT all npt temp 2050 2040 0.1 iso 0 0 1
  run 10000
Loop time of 191.179 on 36 procs for 10000 steps with 62500 atoms

  unfix NPT

  next i
jump lammps_script loop_cool
  variable Tstart equal 2500 - (47-1)*10
  variable Tstop  equal 2500 - (47)*10

  fix NPT all npt temp 2040 2030 0.1 iso 0 0 1
  run 10000
Loop time of 191.24 on 36 procs for 10000 steps with 62500 atoms

  unfix NPT

  next i
jump lammps_script loop_cool
  variable Tstart equal 2500 - (48-1)*10
  variable Tstop  equal 2500 - (48)*10

  fix NPT all npt temp 2030 2020 0.1 iso 0 0 1
  run 10000
Loop time of 191.693 on 36 procs for 10000 steps with 62500 atoms

  unfix NPT

  next i
jump lammps_script loop_cool
  variable Tstart equal 2500 - (49-1)*10
  variable Tstop  equal 2500 - (49)*10

  fix NPT all npt temp 2020 2010 0.1 iso 0 0 1
  run 10000
Loop time of 191.627 on 36 procs for 10000 steps with 62500 atoms

  unfix NPT

  next i
jump lammps_script loop_cool
  variable Tstart equal 2500 - (50-1)*10
  variable Tstop  equal 2500 - (50)*10

  fix NPT all npt temp 2010 2000 0.1 iso 0 0 1
  run 10000
Loop time of 192.342 on 36 procs for 10000 steps with 62500 atoms

  unfix NPT

  next i
jump lammps_script loop_cool
  variable Tstart equal 2500 - (51-1)*10
  variable Tstop  equal 2500 - (51)*10

  fix NPT all npt temp 2000 1990 0.1 iso 0 0 1
  run 10000
Loop time of 191.631 on 36 procs for 10000 steps with 62500 atoms

  unfix NPT

  next i
jump lammps_script loop_cool
  variable Tstart equal 2500 - (52-1)*10
  variable Tstop  equal 2500 - (52)*10

  fix NPT all npt temp 1990 1980 0.1 iso 0 0 1
  run 10000
Loop time of 192.118 on 36 procs for 10000 steps with 62500 atoms

  unfix NPT

  next i
jump lammps_script loop_cool
  variable Tstart equal 2500 - (53-1)*10
  variable Tstop  equal 2500 - (53)*10

  fix NPT all npt temp 1980 1970 0.1 iso 0 0 1
  run 10000
Loop time of 192.07 on 36 procs for 10000 steps with 62500 atoms

  unfix NPT

  next i
jump lammps_script loop_cool
  variable Tstart equal 2500 - (54-1)*10
  variable Tstop  equal 2500 - (54)*10

  fix NPT all npt temp 1970 1960 0.1 iso 0 0 1
  run 10000
Loop time of 192.095 on 36 procs for 10000 steps with 62500 atoms

  unfix NPT

  next i
jump lammps_script loop_cool
  variable Tstart equal 2500 - (55-1)*10
  variable Tstop  equal 2500 - (55)*10

  fix NPT all npt temp 1960 1950 0.1 iso 0 0 1
  run 10000
Loop time of 192.417 on 36 procs for 10000 steps with 62500 atoms

  unfix NPT

  next i
jump lammps_script loop_cool
  variable Tstart equal 2500 - (56-1)*10
  variable Tstop  equal 2500 - (56)*10

  fix NPT all npt temp 1950 1940 0.1 iso 0 0 1
  run 10000
Loop time of 192.441 on 36 procs for 10000 steps with 62500 atoms

  unfix NPT

  next i
jump lammps_script loop_cool
  variable Tstart equal 2500 - (57-1)*10
  variable Tstop  equal 2500 - (57)*10

  fix NPT all npt temp 1940 1930 0.1 iso 0 0 1
  run 10000
Loop time of 192.091 on 36 procs for 10000 steps with 62500 atoms

  unfix NPT

  next i
jump lammps_script loop_cool
  variable Tstart equal 2500 - (58-1)*10
  variable Tstop  equal 2500 - (58)*10

  fix NPT all npt temp 1930 1920 0.1 iso 0 0 1
  run 10000
Loop time of 192.446 on 36 procs for 10000 steps with 62500 atoms

  unfix NPT

  next i
jump lammps_script loop_cool
  variable Tstart equal 2500 - (59-1)*10
  variable Tstop  equal 2500 - (59)*10

  fix NPT all npt temp 1920 1910 0.1 iso 0 0 1
  run 10000
Loop time of 192.167 on 36 procs for 10000 steps with 62500 atoms

  unfix NPT

  next i
jump lammps_script loop_cool
  variable Tstart equal 2500 - (60-1)*10
  variable Tstop  equal 2500 - (60)*10

  fix NPT all npt temp 1910 1900 0.1 iso 0 0 1
  run 10000
Loop time of 192.414 on 36 procs for 10000 steps with 62500 atoms

  unfix NPT

  next i
jump lammps_script loop_cool
  variable Tstart equal 2500 - (61-1)*10
  variable Tstop  equal 2500 - (61)*10

  fix NPT all npt temp 1900 1890 0.1 iso 0 0 1
  run 10000
Loop time of 192.306 on 36 procs for 10000 steps with 62500 atoms

  unfix NPT

  next i
jump lammps_script loop_cool
  variable Tstart equal 2500 - (62-1)*10
  variable Tstop  equal 2500 - (62)*10

  fix NPT all npt temp 1890 1880 0.1 iso 0 0 1
  run 10000
Loop time of 192.305 on 36 procs for 10000 steps with 62500 atoms

  unfix NPT

  next i
jump lammps_script loop_cool
  variable Tstart equal 2500 - (63-1)*10
  variable Tstop  equal 2500 - (63)*10

  fix NPT all npt temp 1880 1870 0.1 iso 0 0 1
  run 10000
Loop time of 192.542 on 36 procs for 10000 steps with 62500 atoms

  unfix NPT

  next i
jump lammps_script loop_cool
  variable Tstart equal 2500 - (64-1)*10
  variable Tstop  equal 2500 - (64)*10

  fix NPT all npt temp 1870 1860 0.1 iso 0 0 1
  run 10000
Loop time of 192.55 on 36 procs for 10000 steps with 62500 atoms

  unfix NPT

  next i
jump lammps_script loop_cool
  variable Tstart equal 2500 - (65-1)*10
  variable Tstop  equal 2500 - (65)*10

  fix NPT all npt temp 1860 1850 0.1 iso 0 0 1
  run 10000
Loop time of 192.506 on 36 procs for 10000 steps with 62500 atoms

  unfix NPT

  next i
jump lammps_script loop_cool
  variable Tstart equal 2500 - (66-1)*10
  variable Tstop  equal 2500 - (66)*10

  fix NPT all npt temp 1850 1840 0.1 iso 0 0 1
  run 10000
Loop time of 192.494 on 36 procs for 10000 steps with 62500 atoms

  unfix NPT

  next i
jump lammps_script loop_cool
  variable Tstart equal 2500 - (67-1)*10
  variable Tstop  equal 2500 - (67)*10

  fix NPT all npt temp 1840 1830 0.1 iso 0 0 1
  run 10000
Loop time of 192.474 on 36 procs for 10000 steps with 62500 atoms

  unfix NPT

  next i
jump lammps_script loop_cool
  variable Tstart equal 2500 - (68-1)*10
  variable Tstop  equal 2500 - (68)*10

  fix NPT all npt temp 1830 1820 0.1 iso 0 0 1
  run 10000
Loop time of 192.383 on 36 procs for 10000 steps with 62500 atoms

  unfix NPT

  next i
jump lammps_script loop_cool
  variable Tstart equal 2500 - (69-1)*10
  variable Tstop  equal 2500 - (69)*10

  fix NPT all npt temp 1820 1810 0.1 iso 0 0 1
  run 10000
Loop time of 192.521 on 36 procs for 10000 steps with 62500 atoms

  unfix NPT

  next i
jump lammps_script loop_cool
  variable Tstart equal 2500 - (70-1)*10
  variable Tstop  equal 2500 - (70)*10

  fix NPT all npt temp 1810 1800 0.1 iso 0 0 1
  run 10000
Loop time of 192.53 on 36 procs for 10000 steps with 62500 atoms

  unfix NPT

  next i
jump lammps_script loop_cool
  variable Tstart equal 2500 - (71-1)*10
  variable Tstop  equal 2500 - (71)*10

  fix NPT all npt temp 1800 1790 0.1 iso 0 0 1
  run 10000
Loop time of 192.558 on 36 procs for 10000 steps with 62500 atoms

  unfix NPT

  next i
jump lammps_script loop_cool
  variable Tstart equal 2500 - (72-1)*10
  variable Tstop  equal 2500 - (72)*10

  fix NPT all npt temp 1790 1780 0.1 iso 0 0 1
  run 10000
Loop time of 192.854 on 36 procs for 10000 steps with 62500 atoms

  unfix NPT

  next i
jump lammps_script loop_cool
  variable Tstart equal 2500 - (73-1)*10
  variable Tstop  equal 2500 - (73)*10

  fix NPT all npt temp 1780 1770 0.1 iso 0 0 1
  run 10000
Loop time of 192.64 on 36 procs for 10000 steps with 62500 atoms

  unfix NPT

  next i
jump lammps_script loop_cool
  variable Tstart equal 2500 - (74-1)*10
  variable Tstop  equal 2500 - (74)*10

  fix NPT all npt temp 1770 1760 0.1 iso 0 0 1
  run 10000
Loop time of 192.596 on 36 procs for 10000 steps with 62500 atoms

  unfix NPT

  next i
jump lammps_script loop_cool
  variable Tstart equal 2500 - (75-1)*10
  variable Tstop  equal 2500 - (75)*10

  fix NPT all npt temp 1760 1750 0.1 iso 0 0 1
  run 10000
Loop time of 192.84 on 36 procs for 10000 steps with 62500 atoms

  unfix NPT

  next i
jump lammps_script loop_cool
  variable Tstart equal 2500 - (76-1)*10
  variable Tstop  equal 2500 - (76)*10

  fix NPT all npt temp 1750 1740 0.1 iso 0 0 1
  run 10000
Loop time of 192.905 on 36 procs for 10000 steps with 62500 atoms

  unfix NPT

  next i
jump lammps_script loop_cool
  variable Tstart equal 2500 - (77-1)*10
  variable Tstop  equal 2500 - (77)*10

  fix NPT all npt temp 1740 1730 0.1 iso 0 0 1
  run 10000
Loop time of 193.022 on 36 procs for 10000 steps with 62500 atoms

  unfix NPT

  next i
jump lammps_script loop_cool
  variable Tstart equal 2500 - (78-1)*10
  variable Tstop  equal 2500 - (78)*10

  fix NPT all npt temp 1730 1720 0.1 iso 0 0 1
  run 10000
Loop time of 193.209 on 36 procs for 10000 steps with 62500 atoms

  unfix NPT

  next i
jump lammps_script loop_cool
  variable Tstart equal 2500 - (79-1)*10
  variable Tstop  equal 2500 - (79)*10

  fix NPT all npt temp 1720 1710 0.1 iso 0 0 1
  run 10000
Loop time of 193.173 on 36 procs for 10000 steps with 62500 atoms

  unfix NPT

  next i
jump lammps_script loop_cool
  variable Tstart equal 2500 - (80-1)*10
  variable Tstop  equal 2500 - (80)*10

  fix NPT all npt temp 1710 1700 0.1 iso 0 0 1
  run 10000
Loop time of 193.549 on 36 procs for 10000 steps with 62500 atoms

  unfix NPT

  next i
jump lammps_script loop_cool
  variable Tstart equal 2500 - (81-1)*10
  variable Tstop  equal 2500 - (81)*10

  fix NPT all npt temp 1700 1690 0.1 iso 0 0 1
  run 10000
Loop time of 193.417 on 36 procs for 10000 steps with 62500 atoms

  unfix NPT

  next i
jump lammps_script loop_cool
  variable Tstart equal 2500 - (82-1)*10
  variable Tstop  equal 2500 - (82)*10

  fix NPT all npt temp 1690 1680 0.1 iso 0 0 1
  run 10000
Loop time of 193.403 on 36 procs for 10000 steps with 62500 atoms

  unfix NPT

  next i
jump lammps_script loop_cool
  variable Tstart equal 2500 - (83-1)*10
  variable Tstop  equal 2500 - (83)*10

  fix NPT all npt temp 1680 1670 0.1 iso 0 0 1
  run 10000
Loop time of 193.817 on 36 procs for 10000 steps with 62500 atoms

  unfix NPT

  next i
jump lammps_script loop_cool
  variable Tstart equal 2500 - (84-1)*10
  variable Tstop  equal 2500 - (84)*10

  fix NPT all npt temp 1670 1660 0.1 iso 0 0 1
  run 10000
Loop time of 194.323 on 36 procs for 10000 steps with 62500 atoms

  unfix NPT

  next i
jump lammps_script loop_cool
  variable Tstart equal 2500 - (85-1)*10
  variable Tstop  equal 2500 - (85)*10

  fix NPT all npt temp 1660 1650 0.1 iso 0 0 1
  run 10000
Loop time of 194.042 on 36 procs for 10000 steps with 62500 atoms

  unfix NPT

  next i
jump lammps_script loop_cool
  variable Tstart equal 2500 - (86-1)*10
  variable Tstop  equal 2500 - (86)*10

  fix NPT all npt temp 1650 1640 0.1 iso 0 0 1
  run 10000
Loop time of 194.057 on 36 procs for 10000 steps with 62500 atoms

  unfix NPT

  next i
jump lammps_script loop_cool
  variable Tstart equal 2500 - (87-1)*10
  variable Tstop  equal 2500 - (87)*10

  fix NPT all npt temp 1640 1630 0.1 iso 0 0 1
  run 10000
Loop time of 194.048 on 36 procs for 10000 steps with 62500 atoms

  unfix NPT

  next i
jump lammps_script loop_cool
  variable Tstart equal 2500 - (88-1)*10
  variable Tstop  equal 2500 - (88)*10

  fix NPT all npt temp 1630 1620 0.1 iso 0 0 1
  run 10000
Loop time of 194.268 on 36 procs for 10000 steps with 62500 atoms

  unfix NPT

  next i
jump lammps_script loop_cool
  variable Tstart equal 2500 - (89-1)*10
  variable Tstop  equal 2500 - (89)*10

  fix NPT all npt temp 1620 1610 0.1 iso 0 0 1
  run 10000
Loop time of 194.13 on 36 procs for 10000 steps with 62500 atoms

  unfix NPT

  next i
jump lammps_script loop_cool
  variable Tstart equal 2500 - (90-1)*10
  variable Tstop  equal 2500 - (90)*10

  fix NPT all npt temp 1610 1600 0.1 iso 0 0 1
  run 10000
Loop time of 194.126 on 36 procs for 10000 steps with 62500 atoms

  unfix NPT

  next i
jump lammps_script loop_cool
  variable Tstart equal 2500 - (91-1)*10
  variable Tstop  equal 2500 - (91)*10

  fix NPT all npt temp 1600 1590 0.1 iso 0 0 1
  run 10000
Loop time of 194.297 on 36 procs for 10000 steps with 62500 atoms

  unfix NPT

  next i
jump lammps_script loop_cool
  variable Tstart equal 2500 - (92-1)*10
  variable Tstop  equal 2500 - (92)*10

  fix NPT all npt temp 1590 1580 0.1 iso 0 0 1
  run 10000
Loop time of 194.255 on 36 procs for 10000 steps with 62500 atoms

  unfix NPT

  next i
jump lammps_script loop_cool
  variable Tstart equal 2500 - (93-1)*10
  variable Tstop  equal 2500 - (93)*10

  fix NPT all npt temp 1580 1570 0.1 iso 0 0 1
  run 10000
Loop time of 194.085 on 36 procs for 10000 steps with 62500 atoms

  unfix NPT

  next i
jump lammps_script loop_cool
  variable Tstart equal 2500 - (94-1)*10
  variable Tstop  equal 2500 - (94)*10

  fix NPT all npt temp 1570 1560 0.1 iso 0 0 1
  run 10000
Loop time of 194.45 on 36 procs for 10000 steps with 62500 atoms

  unfix NPT

  next i
jump lammps_script loop_cool
  variable Tstart equal 2500 - (95-1)*10
  variable Tstop  equal 2500 - (95)*10

  fix NPT all npt temp 1560 1550 0.1 iso 0 0 1
  run 10000
Loop time of 194.673 on 36 procs for 10000 steps with 62500 atoms

  unfix NPT

  next i
jump lammps_script loop_cool
  variable Tstart equal 2500 - (96-1)*10
  variable Tstop  equal 2500 - (96)*10

  fix NPT all npt temp 1550 1540 0.1 iso 0 0 1
  run 10000
Loop time of 194.641 on 36 procs for 10000 steps with 62500 atoms

  unfix NPT

  next i
jump lammps_script loop_cool
  variable Tstart equal 2500 - (97-1)*10
  variable Tstop  equal 2500 - (97)*10

  fix NPT all npt temp 1540 1530 0.1 iso 0 0 1
  run 10000
Loop time of 194.681 on 36 procs for 10000 steps with 62500 atoms

  unfix NPT

  next i
jump lammps_script loop_cool
  variable Tstart equal 2500 - (98-1)*10
  variable Tstop  equal 2500 - (98)*10

  fix NPT all npt temp 1530 1520 0.1 iso 0 0 1
  run 10000
Loop time of 194.711 on 36 procs for 10000 steps with 62500 atoms

  unfix NPT

  next i
jump lammps_script loop_cool
  variable Tstart equal 2500 - (99-1)*10
  variable Tstop  equal 2500 - (99)*10

  fix NPT all npt temp 1520 1510 0.1 iso 0 0 1
  run 10000
Loop time of 194.579 on 36 procs for 10000 steps with 62500 atoms

  unfix NPT

  next i
jump lammps_script loop_cool
  variable Tstart equal 2500 - (100-1)*10
  variable Tstop  equal 2500 - (100)*10

  fix NPT all npt temp 1510 1500 0.1 iso 0 0 1
  run 10000
Loop time of 194.581 on 36 procs for 10000 steps with 62500 atoms

  unfix NPT

  next i
jump lammps_script loop_cool
  variable Tstart equal 2500 - (101-1)*10
  variable Tstop  equal 2500 - (101)*10

  fix NPT all npt temp 1500 1490 0.1 iso 0 0 1
  run 10000
Loop time of 194.976 on 36 procs for 10000 steps with 62500 atoms

  unfix NPT

  next i
jump lammps_script loop_cool
  variable Tstart equal 2500 - (102-1)*10
  variable Tstop  equal 2500 - (102)*10

  fix NPT all npt temp 1490 1480 0.1 iso 0 0 1
  run 10000
Loop time of 194.893 on 36 procs for 10000 steps with 62500 atoms

  unfix NPT

  next i
jump lammps_script loop_cool
  variable Tstart equal 2500 - (103-1)*10
  variable Tstop  equal 2500 - (103)*10

  fix NPT all npt temp 1480 1470 0.1 iso 0 0 1
  run 10000
Loop time of 194.896 on 36 procs for 10000 steps with 62500 atoms

  unfix NPT

  next i
jump lammps_script loop_cool
  variable Tstart equal 2500 - (104-1)*10
  variable Tstop  equal 2500 - (104)*10

  fix NPT all npt temp 1470 1460 0.1 iso 0 0 1
  run 10000
Loop time of 194.743 on 36 procs for 10000 steps with 62500 atoms

  unfix NPT

  next i
jump lammps_script loop_cool
  variable Tstart equal 2500 - (105-1)*10
  variable Tstop  equal 2500 - (105)*10

  fix NPT all npt temp 1460 1450 0.1 iso 0 0 1
  run 10000
Loop time of 194.915 on 36 procs for 10000 steps with 62500 atoms

  unfix NPT

  next i
jump lammps_script loop_cool
  variable Tstart equal 2500 - (106-1)*10
  variable Tstop  equal 2500 - (106)*10

  fix NPT all npt temp 1450 1440 0.1 iso 0 0 1
  run 10000
Loop time of 195.179 on 36 procs for 10000 steps with 62500 atoms

  unfix NPT

  next i
jump lammps_script loop_cool
  variable Tstart equal 2500 - (107-1)*10
  variable Tstop  equal 2500 - (107)*10

  fix NPT all npt temp 1440 1430 0.1 iso 0 0 1
  run 10000
Loop time of 195.267 on 36 procs for 10000 steps with 62500 atoms

  unfix NPT

  next i
jump lammps_script loop_cool
  variable Tstart equal 2500 - (108-1)*10
  variable Tstop  equal 2500 - (108)*10

  fix NPT all npt temp 1430 1420 0.1 iso 0 0 1
  run 10000
Loop time of 195.098 on 36 procs for 10000 steps with 62500 atoms

  unfix NPT

  next i
jump lammps_script loop_cool
  variable Tstart equal 2500 - (109-1)*10
  variable Tstop  equal 2500 - (109)*10

  fix NPT all npt temp 1420 1410 0.1 iso 0 0 1
  run 10000
Loop time of 195.295 on 36 procs for 10000 steps with 62500 atoms

  unfix NPT

  next i
jump lammps_script loop_cool
  variable Tstart equal 2500 - (110-1)*10
  variable Tstop  equal 2500 - (110)*10

  fix NPT all npt temp 1410 1400 0.1 iso 0 0 1
  run 10000
Loop time of 195.135 on 36 procs for 10000 steps with 62500 atoms

  unfix NPT

  next i
jump lammps_script loop_cool
  variable Tstart equal 2500 - (111-1)*10
  variable Tstop  equal 2500 - (111)*10

  fix NPT all npt temp 1400 1390 0.1 iso 0 0 1
  run 10000
Loop time of 195.171 on 36 procs for 10000 steps with 62500 atoms

  unfix NPT

  next i
jump lammps_script loop_cool
  variable Tstart equal 2500 - (112-1)*10
  variable Tstop  equal 2500 - (112)*10

  fix NPT all npt temp 1390 1380 0.1 iso 0 0 1
  run 10000
Loop time of 195.028 on 36 procs for 10000 steps with 62500 atoms

  unfix NPT

  next i
jump lammps_script loop_cool
  variable Tstart equal 2500 - (113-1)*10
  variable Tstop  equal 2500 - (113)*10

  fix NPT all npt temp 1380 1370 0.1 iso 0 0 1
  run 10000
Loop time of 195.086 on 36 procs for 10000 steps with 62500 atoms

  unfix NPT

  next i
jump lammps_script loop_cool
  variable Tstart equal 2500 - (114-1)*10
  variable Tstop  equal 2500 - (114)*10

  fix NPT all npt temp 1370 1360 0.1 iso 0 0 1
  run 10000
Loop time of 195.198 on 36 procs for 10000 steps with 62500 atoms

  unfix NPT

  next i
jump lammps_script loop_cool
  variable Tstart equal 2500 - (115-1)*10
  variable Tstop  equal 2500 - (115)*10

  fix NPT all npt temp 1360 1350 0.1 iso 0 0 1
  run 10000
Loop time of 195.177 on 36 procs for 10000 steps with 62500 atoms

  unfix NPT

  next i
jump lammps_script loop_cool
  variable Tstart equal 2500 - (116-1)*10
  variable Tstop  equal 2500 - (116)*10

  fix NPT all npt temp 1350 1340 0.1 iso 0 0 1
  run 10000
Loop time of 195.282 on 36 procs for 10000 steps with 62500 atoms

  unfix NPT

  next i
jump lammps_script loop_cool
  variable Tstart equal 2500 - (117-1)*10
  variable Tstop  equal 2500 - (117)*10

  fix NPT all npt temp 1340 1330 0.1 iso 0 0 1
  run 10000
Loop time of 195.686 on 36 procs for 10000 steps with 62500 atoms

  unfix NPT

  next i
jump lammps_script loop_cool
  variable Tstart equal 2500 - (118-1)*10
  variable Tstop  equal 2500 - (118)*10

  fix NPT all npt temp 1330 1320 0.1 iso 0 0 1
  run 10000
Loop time of 195.537 on 36 procs for 10000 steps with 62500 atoms

  unfix NPT

  next i
jump lammps_script loop_cool
  variable Tstart equal 2500 - (119-1)*10
  variable Tstop  equal 2500 - (119)*10

  fix NPT all npt temp 1320 1310 0.1 iso 0 0 1
  run 10000
Loop time of 195.512 on 36 procs for 10000 steps with 62500 atoms

  unfix NPT

  next i
jump lammps_script loop_cool
  variable Tstart equal 2500 - (120-1)*10
  variable Tstop  equal 2500 - (120)*10

  fix NPT all npt temp 1310 1300 0.1 iso 0 0 1
  run 10000
Loop time of 195.683 on 36 procs for 10000 steps with 62500 atoms

  unfix NPT

  next i
jump lammps_script loop_cool
  variable Tstart equal 2500 - (121-1)*10
  variable Tstop  equal 2500 - (121)*10

  fix NPT all npt temp 1300 1290 0.1 iso 0 0 1
  run 10000
Loop time of 195.612 on 36 procs for 10000 steps with 62500 atoms

  unfix NPT

  next i
jump lammps_script loop_cool
  variable Tstart equal 2500 - (122-1)*10
  variable Tstop  equal 2500 - (122)*10

  fix NPT all npt temp 1290 1280 0.1 iso 0 0 1
  run 10000
Loop time of 195.585 on 36 procs for 10000 steps with 62500 atoms

  unfix NPT

  next i
jump lammps_script loop_cool
  variable Tstart equal 2500 - (123-1)*10
  variable Tstop  equal 2500 - (123)*10

  fix NPT all npt temp 1280 1270 0.1 iso 0 0 1
  run 10000
Loop time of 195.845 on 36 procs for 10000 steps with 62500 atoms

  unfix NPT

  next i
jump lammps_script loop_cool
  variable Tstart equal 2500 - (124-1)*10
  variable Tstop  equal 2500 - (124)*10

  fix NPT all npt temp 1270 1260 0.1 iso 0 0 1
  run 10000
Loop time of 195.837 on 36 procs for 10000 steps with 62500 atoms

  unfix NPT

  next i
jump lammps_script loop_cool
  variable Tstart equal 2500 - (125-1)*10
  variable Tstop  equal 2500 - (125)*10

  fix NPT all npt temp 1260 1250 0.1 iso 0 0 1
  run 10000
Loop time of 195.733 on 36 procs for 10000 steps with 62500 atoms

  unfix NPT

  next i
jump lammps_script loop_cool
  variable Tstart equal 2500 - (126-1)*10
  variable Tstop  equal 2500 - (126)*10

  fix NPT all npt temp 1250 1240 0.1 iso 0 0 1
  run 10000
Loop time of 195.949 on 36 procs for 10000 steps with 62500 atoms

  unfix NPT

  next i
jump lammps_script loop_cool
  variable Tstart equal 2500 - (127-1)*10
  variable Tstop  equal 2500 - (127)*10

  fix NPT all npt temp 1240 1230 0.1 iso 0 0 1
  run 10000
Loop time of 199.46 on 36 procs for 10000 steps with 62500 atoms

  unfix NPT

  next i
jump lammps_script loop_cool
  variable Tstart equal 2500 - (128-1)*10
  variable Tstop  equal 2500 - (128)*10

  fix NPT all npt temp 1230 1220 0.1 iso 0 0 1
  run 10000
Loop time of 195.896 on 36 procs for 10000 steps with 62500 atoms

  unfix NPT

  next i
jump lammps_script loop_cool
  variable Tstart equal 2500 - (129-1)*10
  variable Tstop  equal 2500 - (129)*10

  fix NPT all npt temp 1220 1210 0.1 iso 0 0 1
  run 10000
Loop time of 195.667 on 36 procs for 10000 steps with 62500 atoms

  unfix NPT

  next i
jump lammps_script loop_cool
  variable Tstart equal 2500 - (130-1)*10
  variable Tstop  equal 2500 - (130)*10

  fix NPT all npt temp 1210 1200 0.1 iso 0 0 1
  run 10000
Loop time of 195.628 on 36 procs for 10000 steps with 62500 atoms

  unfix NPT

  next i
jump lammps_script loop_cool
  variable Tstart equal 2500 - (131-1)*10
  variable Tstop  equal 2500 - (131)*10

  fix NPT all npt temp 1200 1190 0.1 iso 0 0 1
  run 10000
Loop time of 195.575 on 36 procs for 10000 steps with 62500 atoms

  unfix NPT

  next i
jump lammps_script loop_cool
  variable Tstart equal 2500 - (132-1)*10
  variable Tstop  equal 2500 - (132)*10

  fix NPT all npt temp 1190 1180 0.1 iso 0 0 1
  run 10000
Loop time of 195.747 on 36 procs for 10000 steps with 62500 atoms

  unfix NPT

  next i
jump lammps_script loop_cool
  variable Tstart equal 2500 - (133-1)*10
  variable Tstop  equal 2500 - (133)*10

  fix NPT all npt temp 1180 1170 0.1 iso 0 0 1
  run 10000
Loop time of 195.716 on 36 procs for 10000 steps with 62500 atoms

  unfix NPT

  next i
jump lammps_script loop_cool
  variable Tstart equal 2500 - (134-1)*10
  variable Tstop  equal 2500 - (134)*10

  fix NPT all npt temp 1170 1160 0.1 iso 0 0 1
  run 10000
Loop time of 195.789 on 36 procs for 10000 steps with 62500 atoms

  unfix NPT

  next i
jump lammps_script loop_cool
  variable Tstart equal 2500 - (135-1)*10
  variable Tstop  equal 2500 - (135)*10

  fix NPT all npt temp 1160 1150 0.1 iso 0 0 1
  run 10000
Loop time of 195.866 on 36 procs for 10000 steps with 62500 atoms

  unfix NPT

  next i
jump lammps_script loop_cool
  variable Tstart equal 2500 - (136-1)*10
  variable Tstop  equal 2500 - (136)*10

  fix NPT all npt temp 1150 1140 0.1 iso 0 0 1
  run 10000
Loop time of 195.807 on 36 procs for 10000 steps with 62500 atoms

  unfix NPT

  next i
jump lammps_script loop_cool
  variable Tstart equal 2500 - (137-1)*10
  variable Tstop  equal 2500 - (137)*10

  fix NPT all npt temp 1140 1130 0.1 iso 0 0 1
  run 10000
Loop time of 195.933 on 36 procs for 10000 steps with 62500 atoms

  unfix NPT

  next i
jump lammps_script loop_cool
  variable Tstart equal 2500 - (138-1)*10
  variable Tstop  equal 2500 - (138)*10

  fix NPT all npt temp 1130 1120 0.1 iso 0 0 1
  run 10000
Loop time of 195.918 on 36 procs for 10000 steps with 62500 atoms

  unfix NPT

  next i
jump lammps_script loop_cool
  variable Tstart equal 2500 - (139-1)*10
  variable Tstop  equal 2500 - (139)*10

  fix NPT all npt temp 1120 1110 0.1 iso 0 0 1
  run 10000
Loop time of 195.881 on 36 procs for 10000 steps with 62500 atoms

  unfix NPT

  next i
jump lammps_script loop_cool
  variable Tstart equal 2500 - (140-1)*10
  variable Tstop  equal 2500 - (140)*10

  fix NPT all npt temp 1110 1100 0.1 iso 0 0 1
  run 10000
Loop time of 195.978 on 36 procs for 10000 steps with 62500 atoms

  unfix NPT

  next i
jump lammps_script loop_cool
  variable Tstart equal 2500 - (141-1)*10
  variable Tstop  equal 2500 - (141)*10

  fix NPT all npt temp 1100 1090 0.1 iso 0 0 1
  run 10000
Loop time of 195.971 on 36 procs for 10000 steps with 62500 atoms

  unfix NPT

  next i
jump lammps_script loop_cool
  variable Tstart equal 2500 - (142-1)*10
  variable Tstop  equal 2500 - (142)*10

  fix NPT all npt temp 1090 1080 0.1 iso 0 0 1
  run 10000
Loop time of 196.061 on 36 procs for 10000 steps with 62500 atoms

  unfix NPT

  next i
jump lammps_script loop_cool
  variable Tstart equal 2500 - (143-1)*10
  variable Tstop  equal 2500 - (143)*10

  fix NPT all npt temp 1080 1070 0.1 iso 0 0 1
  run 10000
Loop time of 195.996 on 36 procs for 10000 steps with 62500 atoms

  unfix NPT

  next i
jump lammps_script loop_cool
  variable Tstart equal 2500 - (144-1)*10
  variable Tstop  equal 2500 - (144)*10

  fix NPT all npt temp 1070 1060 0.1 iso 0 0 1
  run 10000
Loop time of 196.048 on 36 procs for 10000 steps with 62500 atoms

  unfix NPT

  next i
jump lammps_script loop_cool
  variable Tstart equal 2500 - (145-1)*10
  variable Tstop  equal 2500 - (145)*10

  fix NPT all npt temp 1060 1050 0.1 iso 0 0 1
  run 10000
Loop time of 196.175 on 36 procs for 10000 steps with 62500 atoms

  unfix NPT

  next i
jump lammps_script loop_cool
  variable Tstart equal 2500 - (146-1)*10
  variable Tstop  equal 2500 - (146)*10

  fix NPT all npt temp 1050 1040 0.1 iso 0 0 1
  run 10000
Loop time of 196.332 on 36 procs for 10000 steps with 62500 atoms

  unfix NPT

  next i
jump lammps_script loop_cool
  variable Tstart equal 2500 - (147-1)*10
  variable Tstop  equal 2500 - (147)*10

  fix NPT all npt temp 1040 1030 0.1 iso 0 0 1
  run 10000
Loop time of 196.363 on 36 procs for 10000 steps with 62500 atoms

  unfix NPT

  next i
jump lammps_script loop_cool
  variable Tstart equal 2500 - (148-1)*10
  variable Tstop  equal 2500 - (148)*10

  fix NPT all npt temp 1030 1020 0.1 iso 0 0 1
  run 10000
Loop time of 196.351 on 36 procs for 10000 steps with 62500 atoms

  unfix NPT

  next i
jump lammps_script loop_cool
  variable Tstart equal 2500 - (149-1)*10
  variable Tstop  equal 2500 - (149)*10

  fix NPT all npt temp 1020 1010 0.1 iso 0 0 1
  run 10000
Loop time of 196.134 on 36 procs for 10000 steps with 62500 atoms

  unfix NPT

  next i
jump lammps_script loop_cool
  variable Tstart equal 2500 - (150-1)*10
  variable Tstop  equal 2500 - (150)*10

  fix NPT all npt temp 1010 1000 0.1 iso 0 0 1
  run 10000
Loop time of 196.075 on 36 procs for 10000 steps with 62500 atoms

  unfix NPT

  next i
jump lammps_script loop_cool
  variable Tstart equal 2500 - (151-1)*10
  variable Tstop  equal 2500 - (151)*10

  fix NPT all npt temp 1000 990 0.1 iso 0 0 1
  run 10000
Loop time of 196.286 on 36 procs for 10000 steps with 62500 atoms

  unfix NPT

  next i
jump lammps_script loop_cool
  variable Tstart equal 2500 - (152-1)*10
  variable Tstop  equal 2500 - (152)*10

  fix NPT all npt temp 990 980 0.1 iso 0 0 1
  run 10000
Loop time of 196.029 on 36 procs for 10000 steps with 62500 atoms

  unfix NPT

  next i
jump lammps_script loop_cool
  variable Tstart equal 2500 - (153-1)*10
  variable Tstop  equal 2500 - (153)*10

  fix NPT all npt temp 980 970 0.1 iso 0 0 1
  run 10000
Loop time of 196.098 on 36 procs for 10000 steps with 62500 atoms

  unfix NPT

  next i
jump lammps_script loop_cool
  variable Tstart equal 2500 - (154-1)*10
  variable Tstop  equal 2500 - (154)*10

  fix NPT all npt temp 970 960 0.1 iso 0 0 1
  run 10000
Loop time of 196.204 on 36 procs for 10000 steps with 62500 atoms

  unfix NPT

  next i
jump lammps_script loop_cool
  variable Tstart equal 2500 - (155-1)*10
  variable Tstop  equal 2500 - (155)*10

  fix NPT all npt temp 960 950 0.1 iso 0 0 1
  run 10000
Loop time of 196.237 on 36 procs for 10000 steps with 62500 atoms

  unfix NPT

  next i
jump lammps_script loop_cool
  variable Tstart equal 2500 - (156-1)*10
  variable Tstop  equal 2500 - (156)*10

  fix NPT all npt temp 950 940 0.1 iso 0 0 1
  run 10000
Loop time of 196.154 on 36 procs for 10000 steps with 62500 atoms

  unfix NPT

  next i
jump lammps_script loop_cool
  variable Tstart equal 2500 - (157-1)*10
  variable Tstop  equal 2500 - (157)*10

  fix NPT all npt temp 940 930 0.1 iso 0 0 1
  run 10000
Loop time of 196.3 on 36 procs for 10000 steps with 62500 atoms

  unfix NPT

  next i
jump lammps_script loop_cool
  variable Tstart equal 2500 - (158-1)*10
  variable Tstop  equal 2500 - (158)*10

  fix NPT all npt temp 930 920 0.1 iso 0 0 1
  run 10000
Loop time of 196.116 on 36 procs for 10000 steps with 62500 atoms

  unfix NPT

  next i
jump lammps_script loop_cool
  variable Tstart equal 2500 - (159-1)*10
  variable Tstop  equal 2500 - (159)*10

  fix NPT all npt temp 920 910 0.1 iso 0 0 1
  run 10000
Loop time of 196.108 on 36 procs for 10000 steps with 62500 atoms

  unfix NPT

  next i
jump lammps_script loop_cool
  variable Tstart equal 2500 - (160-1)*10
  variable Tstop  equal 2500 - (160)*10

  fix NPT all npt temp 910 900 0.1 iso 0 0 1
  run 10000
Loop time of 196.172 on 36 procs for 10000 steps with 62500 atoms

  unfix NPT

  next i
jump lammps_script loop_cool
  variable Tstart equal 2500 - (161-1)*10
  variable Tstop  equal 2500 - (161)*10

  fix NPT all npt temp 900 890 0.1 iso 0 0 1
  run 10000
Loop time of 196.161 on 36 procs for 10000 steps with 62500 atoms

  unfix NPT

  next i
jump lammps_script loop_cool
  variable Tstart equal 2500 - (162-1)*10
  variable Tstop  equal 2500 - (162)*10

  fix NPT all npt temp 890 880 0.1 iso 0 0 1
  run 10000
Loop time of 196.26 on 36 procs for 10000 steps with 62500 atoms

  unfix NPT

  next i
jump lammps_script loop_cool
  variable Tstart equal 2500 - (163-1)*10
  variable Tstop  equal 2500 - (163)*10

  fix NPT all npt temp 880 870 0.1 iso 0 0 1
  run 10000
Loop time of 196.2 on 36 procs for 10000 steps with 62500 atoms

  unfix NPT

  next i
jump lammps_script loop_cool
  variable Tstart equal 2500 - (164-1)*10
  variable Tstop  equal 2500 - (164)*10

  fix NPT all npt temp 870 860 0.1 iso 0 0 1
  run 10000
Loop time of 195.999 on 36 procs for 10000 steps with 62500 atoms

  unfix NPT

  next i
jump lammps_script loop_cool
  variable Tstart equal 2500 - (165-1)*10
  variable Tstop  equal 2500 - (165)*10

  fix NPT all npt temp 860 850 0.1 iso 0 0 1
  run 10000
Loop time of 196.06 on 36 procs for 10000 steps with 62500 atoms

  unfix NPT

  next i
jump lammps_script loop_cool
  variable Tstart equal 2500 - (166-1)*10
  variable Tstop  equal 2500 - (166)*10

  fix NPT all npt temp 850 840 0.1 iso 0 0 1
  run 10000
Loop time of 196.146 on 36 procs for 10000 steps with 62500 atoms

  unfix NPT

  next i
jump lammps_script loop_cool
  variable Tstart equal 2500 - (167-1)*10
  variable Tstop  equal 2500 - (167)*10

  fix NPT all npt temp 840 830 0.1 iso 0 0 1
  run 10000
Loop time of 196.08 on 36 procs for 10000 steps with 62500 atoms

  unfix NPT

  next i
jump lammps_script loop_cool
  variable Tstart equal 2500 - (168-1)*10
  variable Tstop  equal 2500 - (168)*10

  fix NPT all npt temp 830 820 0.1 iso 0 0 1
  run 10000
Loop time of 196.148 on 36 procs for 10000 steps with 62500 atoms

  unfix NPT

  next i
jump lammps_script loop_cool
  variable Tstart equal 2500 - (169-1)*10
  variable Tstop  equal 2500 - (169)*10

  fix NPT all npt temp 820 810 0.1 iso 0 0 1
  run 10000
Loop time of 196.091 on 36 procs for 10000 steps with 62500 atoms

  unfix NPT

  next i
jump lammps_script loop_cool
  variable Tstart equal 2500 - (170-1)*10
  variable Tstop  equal 2500 - (170)*10

  fix NPT all npt temp 810 800 0.1 iso 0 0 1
  run 10000
Loop time of 196.174 on 36 procs for 10000 steps with 62500 atoms

  unfix NPT

  next i
jump lammps_script loop_cool
  variable Tstart equal 2500 - (171-1)*10
  variable Tstop  equal 2500 - (171)*10

  fix NPT all npt temp 800 790 0.1 iso 0 0 1
  run 10000
Loop time of 196.131 on 36 procs for 10000 steps with 62500 atoms

  unfix NPT

  next i
jump lammps_script loop_cool
  variable Tstart equal 2500 - (172-1)*10
  variable Tstop  equal 2500 - (172)*10

  fix NPT all npt temp 790 780 0.1 iso 0 0 1
  run 10000
Loop time of 196.177 on 36 procs for 10000 steps with 62500 atoms

  unfix NPT

  next i
jump lammps_script loop_cool
  variable Tstart equal 2500 - (173-1)*10
  variable Tstop  equal 2500 - (173)*10

  fix NPT all npt temp 780 770 0.1 iso 0 0 1
  run 10000
Loop time of 196.007 on 36 procs for 10000 steps with 62500 atoms

  unfix NPT

  next i
jump lammps_script loop_cool
  variable Tstart equal 2500 - (174-1)*10
  variable Tstop  equal 2500 - (174)*10

  fix NPT all npt temp 770 760 0.1 iso 0 0 1
  run 10000
Loop time of 196.031 on 36 procs for 10000 steps with 62500 atoms

  unfix NPT

  next i
jump lammps_script loop_cool
  variable Tstart equal 2500 - (175-1)*10
  variable Tstop  equal 2500 - (175)*10

  fix NPT all npt temp 760 750 0.1 iso 0 0 1
  run 10000
Loop time of 196.007 on 36 procs for 10000 steps with 62500 atoms

  unfix NPT

  next i
jump lammps_script loop_cool
  variable Tstart equal 2500 - (176-1)*10
  variable Tstop  equal 2500 - (176)*10

  fix NPT all npt temp 750 740 0.1 iso 0 0 1
  run 10000
Loop time of 195.959 on 36 procs for 10000 steps with 62500 atoms

  unfix NPT

  next i
jump lammps_script loop_cool
  variable Tstart equal 2500 - (177-1)*10
  variable Tstop  equal 2500 - (177)*10

  fix NPT all npt temp 740 730 0.1 iso 0 0 1
  run 10000
Loop time of 195.931 on 36 procs for 10000 steps with 62500 atoms

  unfix NPT

  next i
jump lammps_script loop_cool
  variable Tstart equal 2500 - (178-1)*10
  variable Tstop  equal 2500 - (178)*10

  fix NPT all npt temp 730 720 0.1 iso 0 0 1
  run 10000
Loop time of 195.997 on 36 procs for 10000 steps with 62500 atoms

  unfix NPT

  next i
jump lammps_script loop_cool
  variable Tstart equal 2500 - (179-1)*10
  variable Tstop  equal 2500 - (179)*10

  fix NPT all npt temp 720 710 0.1 iso 0 0 1
  run 10000
Loop time of 195.884 on 36 procs for 10000 steps with 62500 atoms

  unfix NPT

  next i
jump lammps_script loop_cool
  variable Tstart equal 2500 - (180-1)*10
  variable Tstop  equal 2500 - (180)*10

  fix NPT all npt temp 710 700 0.1 iso 0 0 1
  run 10000
Loop time of 195.908 on 36 procs for 10000 steps with 62500 atoms

  unfix NPT

  next i
jump lammps_script loop_cool
  variable Tstart equal 2500 - (181-1)*10
  variable Tstop  equal 2500 - (181)*10

  fix NPT all npt temp 700 690 0.1 iso 0 0 1
  run 10000
Loop time of 195.828 on 36 procs for 10000 steps with 62500 atoms

  unfix NPT

  next i
jump lammps_script loop_cool
  variable Tstart equal 2500 - (182-1)*10
  variable Tstop  equal 2500 - (182)*10

  fix NPT all npt temp 690 680 0.1 iso 0 0 1
  run 10000
Loop time of 195.686 on 36 procs for 10000 steps with 62500 atoms

  unfix NPT

  next i
jump lammps_script loop_cool
  variable Tstart equal 2500 - (183-1)*10
  variable Tstop  equal 2500 - (183)*10

  fix NPT all npt temp 680 670 0.1 iso 0 0 1
  run 10000
Loop time of 195.749 on 36 procs for 10000 steps with 62500 atoms

  unfix NPT

  next i
jump lammps_script loop_cool
  variable Tstart equal 2500 - (184-1)*10
  variable Tstop  equal 2500 - (184)*10

  fix NPT all npt temp 670 660 0.1 iso 0 0 1
  run 10000
Loop time of 195.989 on 36 procs for 10000 steps with 62500 atoms

  unfix NPT

  next i
jump lammps_script loop_cool
  variable Tstart equal 2500 - (185-1)*10
  variable Tstop  equal 2500 - (185)*10

  fix NPT all npt temp 660 650 0.1 iso 0 0 1
  run 10000
Loop time of 195.864 on 36 procs for 10000 steps with 62500 atoms

  unfix NPT

  next i
jump lammps_script loop_cool
  variable Tstart equal 2500 - (186-1)*10
  variable Tstop  equal 2500 - (186)*10

  fix NPT all npt temp 650 640 0.1 iso 0 0 1
  run 10000
Loop time of 195.79 on 36 procs for 10000 steps with 62500 atoms

  unfix NPT

  next i
jump lammps_script loop_cool
  variable Tstart equal 2500 - (187-1)*10
  variable Tstop  equal 2500 - (187)*10

  fix NPT all npt temp 640 630 0.1 iso 0 0 1
  run 10000
Loop time of 195.851 on 36 procs for 10000 steps with 62500 atoms

  unfix NPT

  next i
jump lammps_script loop_cool
  variable Tstart equal 2500 - (188-1)*10
  variable Tstop  equal 2500 - (188)*10

  fix NPT all npt temp 630 620 0.1 iso 0 0 1
  run 10000
Loop time of 195.812 on 36 procs for 10000 steps with 62500 atoms

  unfix NPT

  next i
jump lammps_script loop_cool
  variable Tstart equal 2500 - (189-1)*10
  variable Tstop  equal 2500 - (189)*10

  fix NPT all npt temp 620 610 0.1 iso 0 0 1
  run 10000
Loop time of 195.833 on 36 procs for 10000 steps with 62500 atoms

  unfix NPT

  next i
jump lammps_script loop_cool
  variable Tstart equal 2500 - (190-1)*10
  variable Tstop  equal 2500 - (190)*10

  fix NPT all npt temp 610 600 0.1 iso 0 0 1
  run 10000
Loop time of 195.747 on 36 procs for 10000 steps with 62500 atoms

  unfix NPT

  next i
jump lammps_script loop_cool
  variable Tstart equal 2500 - (191-1)*10
  variable Tstop  equal 2500 - (191)*10

  fix NPT all npt temp 600 590 0.1 iso 0 0 1
  run 10000
Loop time of 195.622 on 36 procs for 10000 steps with 62500 atoms

  unfix NPT

  next i
jump lammps_script loop_cool
  variable Tstart equal 2500 - (192-1)*10
  variable Tstop  equal 2500 - (192)*10

  fix NPT all npt temp 590 580 0.1 iso 0 0 1
  run 10000
Loop time of 195.661 on 36 procs for 10000 steps with 62500 atoms

  unfix NPT

  next i
jump lammps_script loop_cool
  variable Tstart equal 2500 - (193-1)*10
  variable Tstop  equal 2500 - (193)*10

  fix NPT all npt temp 580 570 0.1 iso 0 0 1
  run 10000
Loop time of 195.727 on 36 procs for 10000 steps with 62500 atoms

  unfix NPT

  next i
jump lammps_script loop_cool
  variable Tstart equal 2500 - (194-1)*10
  variable Tstop  equal 2500 - (194)*10

  fix NPT all npt temp 570 560 0.1 iso 0 0 1
  run 10000
Loop time of 195.638 on 36 procs for 10000 steps with 62500 atoms

  unfix NPT

  next i
jump lammps_script loop_cool
  variable Tstart equal 2500 - (195-1)*10
  variable Tstop  equal 2500 - (195)*10

  fix NPT all npt temp 560 550 0.1 iso 0 0 1
  run 10000
Loop time of 195.463 on 36 procs for 10000 steps with 62500 atoms

  unfix NPT

  next i
jump lammps_script loop_cool
  variable Tstart equal 2500 - (196-1)*10
  variable Tstop  equal 2500 - (196)*10

  fix NPT all npt temp 550 540 0.1 iso 0 0 1
  run 10000
Loop time of 195.491 on 36 procs for 10000 steps with 62500 atoms

  unfix NPT

  next i
jump lammps_script loop_cool
  variable Tstart equal 2500 - (197-1)*10
  variable Tstop  equal 2500 - (197)*10

  fix NPT all npt temp 540 530 0.1 iso 0 0 1
  run 10000
Loop time of 195.582 on 36 procs for 10000 steps with 62500 atoms

  unfix NPT

  next i
jump lammps_script loop_cool
  variable Tstart equal 2500 - (198-1)*10
  variable Tstop  equal 2500 - (198)*10

  fix NPT all npt temp 530 520 0.1 iso 0 0 1
  run 10000
Loop time of 195.416 on 36 procs for 10000 steps with 62500 atoms

  unfix NPT

  next i
jump lammps_script loop_cool
  variable Tstart equal 2500 - (199-1)*10
  variable Tstop  equal 2500 - (199)*10

  fix NPT all npt temp 520 510 0.1 iso 0 0 1
  run 10000
Loop time of 195.649 on 36 procs for 10000 steps with 62500 atoms

  unfix NPT

  next i
jump lammps_script loop_cool
  variable Tstart equal 2500 - (200-1)*10
  variable Tstop  equal 2500 - (200)*10

  fix NPT all npt temp 510 500 0.1 iso 0 0 1
  run 10000
Loop time of 195.684 on 36 procs for 10000 steps with 62500 atoms

  unfix NPT

  next i
jump lammps_script loop_cool
  variable Tstart equal 2500 - (201-1)*10
  variable Tstop  equal 2500 - (201)*10

  fix NPT all npt temp 500 490 0.1 iso 0 0 1
  run 10000
Loop time of 195.402 on 36 procs for 10000 steps with 62500 atoms

  unfix NPT

  next i
jump lammps_script loop_cool
  variable Tstart equal 2500 - (202-1)*10
  variable Tstop  equal 2500 - (202)*10

  fix NPT all npt temp 490 480 0.1 iso 0 0 1
  run 10000
Loop time of 195.363 on 36 procs for 10000 steps with 62500 atoms

  unfix NPT

  next i
jump lammps_script loop_cool
  variable Tstart equal 2500 - (203-1)*10
  variable Tstop  equal 2500 - (203)*10

  fix NPT all npt temp 480 470 0.1 iso 0 0 1
  run 10000
Loop time of 195.291 on 36 procs for 10000 steps with 62500 atoms

  unfix NPT

  next i
jump lammps_script loop_cool
  variable Tstart equal 2500 - (204-1)*10
  variable Tstop  equal 2500 - (204)*10

  fix NPT all npt temp 470 460 0.1 iso 0 0 1
  run 10000
Loop time of 195.269 on 36 procs for 10000 steps with 62500 atoms

  unfix NPT

  next i
jump lammps_script loop_cool
  variable Tstart equal 2500 - (205-1)*10
  variable Tstop  equal 2500 - (205)*10

  fix NPT all npt temp 460 450 0.1 iso 0 0 1
  run 10000
Loop time of 195.238 on 36 procs for 10000 steps with 62500 atoms

  unfix NPT

  next i
jump lammps_script loop_cool
  variable Tstart equal 2500 - (206-1)*10
  variable Tstop  equal 2500 - (206)*10

  fix NPT all npt temp 450 440 0.1 iso 0 0 1
  run 10000
Loop time of 195.192 on 36 procs for 10000 steps with 62500 atoms

  unfix NPT

  next i
jump lammps_script loop_cool
  variable Tstart equal 2500 - (207-1)*10
  variable Tstop  equal 2500 - (207)*10

  fix NPT all npt temp 440 430 0.1 iso 0 0 1
  run 10000
Loop time of 195.206 on 36 procs for 10000 steps with 62500 atoms

  unfix NPT

  next i
jump lammps_script loop_cool
  variable Tstart equal 2500 - (208-1)*10
  variable Tstop  equal 2500 - (208)*10

  fix NPT all npt temp 430 420 0.1 iso 0 0 1
  run 10000
Loop time of 195.176 on 36 procs for 10000 steps with 62500 atoms

  unfix NPT

  next i
jump lammps_script loop_cool
  variable Tstart equal 2500 - (209-1)*10
  variable Tstop  equal 2500 - (209)*10

  fix NPT all npt temp 420 410 0.1 iso 0 0 1
  run 10000
Loop time of 195.166 on 36 procs for 10000 steps with 62500 atoms

  unfix NPT

  next i
jump lammps_script loop_cool
  variable Tstart equal 2500 - (210-1)*10
  variable Tstop  equal 2500 - (210)*10

  fix NPT all npt temp 410 400 0.1 iso 0 0 1
  run 10000
Loop time of 194.974 on 36 procs for 10000 steps with 62500 atoms

  unfix NPT

  next i
jump lammps_script loop_cool
  variable Tstart equal 2500 - (211-1)*10
  variable Tstop  equal 2500 - (211)*10

  fix NPT all npt temp 400 390 0.1 iso 0 0 1
  run 10000
Loop time of 194.972 on 36 procs for 10000 steps with 62500 atoms

  unfix NPT

  next i
jump lammps_script loop_cool
  variable Tstart equal 2500 - (212-1)*10
  variable Tstop  equal 2500 - (212)*10

  fix NPT all npt temp 390 380 0.1 iso 0 0 1
  run 10000
Loop time of 194.921 on 36 procs for 10000 steps with 62500 atoms

  unfix NPT

  next i
jump lammps_script loop_cool
  variable Tstart equal 2500 - (213-1)*10
  variable Tstop  equal 2500 - (213)*10

  fix NPT all npt temp 380 370 0.1 iso 0 0 1
  run 10000
Loop time of 194.996 on 36 procs for 10000 steps with 62500 atoms

  unfix NPT

  next i
jump lammps_script loop_cool
  variable Tstart equal 2500 - (214-1)*10
  variable Tstop  equal 2500 - (214)*10

  fix NPT all npt temp 370 360 0.1 iso 0 0 1
  run 10000
Loop time of 194.821 on 36 procs for 10000 steps with 62500 atoms

  unfix NPT

  next i
jump lammps_script loop_cool
  variable Tstart equal 2500 - (215-1)*10
  variable Tstop  equal 2500 - (215)*10

  fix NPT all npt temp 360 350 0.1 iso 0 0 1
  run 10000
Loop time of 194.869 on 36 procs for 10000 steps with 62500 atoms

  unfix NPT

  next i
jump lammps_script loop_cool
  variable Tstart equal 2500 - (216-1)*10
  variable Tstop  equal 2500 - (216)*10

  fix NPT all npt temp 350 340 0.1 iso 0 0 1
  run 10000
Loop time of 194.925 on 36 procs for 10000 steps with 62500 atoms

  unfix NPT

  next i
jump lammps_script loop_cool
  variable Tstart equal 2500 - (217-1)*10
  variable Tstop  equal 2500 - (217)*10

  fix NPT all npt temp 340 330 0.1 iso 0 0 1
  run 10000
Loop time of 194.626 on 36 procs for 10000 steps with 62500 atoms

  unfix NPT

  next i
jump lammps_script loop_cool
  variable Tstart equal 2500 - (218-1)*10
  variable Tstop  equal 2500 - (218)*10

  fix NPT all npt temp 330 320 0.1 iso 0 0 1
  run 10000
Loop time of 194.605 on 36 procs for 10000 steps with 62500 atoms

  unfix NPT

  next i
jump lammps_script loop_cool
  variable Tstart equal 2500 - (219-1)*10
  variable Tstop  equal 2500 - (219)*10

  fix NPT all npt temp 320 310 0.1 iso 0 0 1
  run 10000
Loop time of 194.602 on 36 procs for 10000 steps with 62500 atoms

  unfix NPT

  next i
jump lammps_script loop_cool
  variable Tstart equal 2500 - (220-1)*10
  variable Tstop  equal 2500 - (220)*10

  fix NPT all npt temp 310 300 0.1 iso 0 0 1
  run 10000
Loop time of 194.564 on 36 procs for 10000 steps with 62500 atoms

  unfix NPT

  next i
jump lammps_script loop_cool
unfix OUT2

write_restart restart.glass
System init for write_restart ...

clear

units            metal
boundary         p p p
atom_style       atomic
atom_modify      sort 0 0
neighbor         0.3 bin
timestep         0.001

read_restart restart.glass
Reading restart file ...
  restart file = 22 Jul 2025, LAMMPS = 22 Jul 2025
  restoring atom style atomic from restart
  orthogonal box = (-5.3745847 -5.3745847 -5.3745847) to (97.874585 97.874585 97.874585)
  pair style meam stores no restart info
  62500 atoms
  read_restart CPU = 0.093 seconds
reset_timestep 0

# 조성: Zr50 Cu50
mass 1 91.224000  # Zr
mass 2 63.546000  # Cu

# MEAM
pair_style meam
pair_coeff * * ../library.meam Zr Cu ../ZrCu.meam Zr Cu

# 공통 변수/thermo
variable Tdamp    equal 0.1
variable Pdamp    equal 1.0
variable Ptarget  equal 0.0
thermo 1000
thermo_style custom step temp press etotal density pe enthalpy vol

# 샘플 변수 (1 ps 간격)
variable vT   equal temp
variable rho  equal density
variable ent  equal enthalpy/atoms

variable Ttgt equal 500
variable Tcur equal 300

variable ramp_steps equal (500 - 300)*100
variable hold_steps equal floor(2000.0/0.001 + 0.5)
variable ofile string anneal_500.dat

fix OUT all ave/time 1000 1 1000 v_vT v_rho v_ent file anneal_500.dat
fix NPT all npt temp 300 500 0.1 iso 0 0 1
run 20000
Loop time of 387.862 on 36 procs for 20000 steps with 62500 atoms

unfix NPT

fix NPT all npt temp 500 500 0.1 iso 0 0 1
run 2000000
Loop time of 38810.5 on 36 procs for 2000000 steps with 62500 atoms

unfix NPT

fix NPT all npt temp 500 300 0.1 iso 0 0 1
run 20000
Loop time of 387.464 on 36 procs for 20000 steps with 62500 atoms

unfix NPT
unfix OUT
write_restart restart.anneal_500K
System init for write_restart ...

clear

units            metal
boundary         p p p
atom_style       atomic
atom_modify      sort 0 0
neighbor         0.3 bin
timestep         0.001

read_restart restart.glass
Reading restart file ...
  restart file = 22 Jul 2025, LAMMPS = 22 Jul 2025
  restoring atom style atomic from restart
  orthogonal box = (-5.3745847 -5.3745847 -5.3745847) to (97.874585 97.874585 97.874585)
  pair style meam stores no restart info
  62500 atoms
  read_restart CPU = 0.118 seconds
reset_timestep 0

# 조성: Zr50 Cu50
mass 1 91.224000  # Zr
mass 2 63.546000  # Cu

# MEAM
pair_style meam
pair_coeff * * ../library.meam Zr Cu ../ZrCu.meam Zr Cu

# 공통 변수/thermo
variable Tdamp    equal 0.1
variable Pdamp    equal 1.0
variable Ptarget  equal 0.0
thermo 1000
thermo_style custom step temp press etotal density pe enthalpy vol

# 샘플 변수 (1 ps 간격)
variable vT   equal temp
variable rho  equal density
variable ent  equal enthalpy/atoms

variable Ttgt equal 700
variable Tcur equal 300

variable ramp_steps equal (700 - 300)*100
variable hold_steps equal floor(2000.0/0.001 + 0.5)
variable ofile string anneal_700.dat

fix OUT all ave/time 1000 1 1000 v_vT v_rho v_ent file anneal_700.dat
fix NPT all npt temp 300 700 0.1 iso 0 0 1
run 40000
Loop time of 775.611 on 36 procs for 40000 steps with 62500 atoms

unfix NPT

fix NPT all npt temp 700 700 0.1 iso 0 0 1
run 2000000
Loop time of 38868 on 36 procs for 2000000 steps with 62500 atoms

unfix NPT

fix NPT all npt temp 700 300 0.1 iso 0 0 1
run 40000
Loop time of 774.121 on 36 procs for 40000 steps with 62500 atoms

unfix NPT
unfix OUT
write_restart restart.anneal_700K
System init for write_restart ...
